
 OpenBabel02042214473D

 14 13  0  0  0  0  0  0  0  0999 V2000
    2.3274    1.0109   -0.1982 C   0  0  0  0  0  0  0  0  0  0  0  0
    3.6461    1.0632    0.5813 C   0  0  0  0  0  0  0  0  0  0  0  0
    2.4244    1.5372   -1.1723 H   0  0  0  0  0  0  0  0  0  0  0  0
    1.5161    1.4918    0.3889 H   0  0  0  0  0  0  0  0  0  0  0  0
    2.0371   -0.0443   -0.3893 H   0  0  0  0  0  0  0  0  0  0  0  0
    4.7612    0.3654   -0.2053 C   0  0  0  0  0  0  0  0  0  0  0  0
    5.7075    0.3802    0.3765 H   0  0  0  0  0  0  0  0  0  0  0  0
    4.9325    0.8720   -1.1796 H   0  0  0  0  0  0  0  0  0  0  0  0
    4.4895   -0.6947   -0.3965 H   0  0  0  0  0  0  0  0  0  0  0  0
    4.0321    2.5155    0.8836 C   0  0  0  0  0  0  0  0  0  0  0  0
    3.5068    0.5274    1.5461 H   0  0  0  0  0  0  0  0  0  0  0  0
    4.1811    3.0876   -0.0576 H   0  0  0  0  0  0  0  0  0  0  0  0
    4.9729    2.5469    1.4737 H   0  0  0  0  0  0  0  0  0  0  0  0
    3.2339    3.0081    1.4788 H   0  0  0  0  0  0  0  0  0  0  0  0
  1  3  1  0  0  0  0
  1  4  1  0  0  0  0
  1  5  1  0  0  0  0
  2  1  1  0  0  0  0
  2  6  1  0  0  0  0
  2 11  1  0  0  0  0
  6  7  1  0  0  0  0
  6  8  1  0  0  0  0
  6  9  1  0  0  0  0
 10  2  1  0  0  0  0
 10 12  1  0  0  0  0
 10 13  1  0  0  0  0
 10 14  1  0  0  0  0
M  END
$$$$
